/*--------------------------------*- C++ -*----------------------------------*\
| =========                 |                                                 |
| \\      /  F ield         | OpenFOAM: The Open Source CFD Toolbox           |
|  \\    /   O peration     | Version:  2.3.x                                 |
|   \\  /    A nd           | Web:      www.OpenFOAM.org                      |
|    \\/     M anipulation  |                                                 |
\*---------------------------------------------------------------------------*/
FoamFile
{
    version     2.0;
    format      ascii;
    class       volScalarField;
    location    "0";
    object      nut;
}
// * * * * * * * * * * * * * * * * * * * * * * * * * * * * * * * * * * * * * //

dimensions      [0 2 -1 0 0 0 0];

internalField   uniform 0;

boundaryField
{
    // #include "include/ABLConditions"

    //- Set patchGroups for constraint patches
    #include "${WM_PROJECT_DIR}/etc/caseDicts/setConstraintTypes"

    inlet
    {
        type            calculated;
        value           uniform 0;
    }

    outlet
    {
        type            calculated;
        value           uniform 0;
    }

    walls
    {
        type            nutkWallFunction;
        value           uniform 0;
    }

    top
    {
        type            nutkWallFunction;
        value           uniform 0;
    }

    bottom
    {
        type            nutkWallFunction;
        value           uniform 0;
    }
/*
    "terrain_.*"
    {
        type            nutkAtmRoughWallFunction;
        z0              $z0;
        value           uniform 0.0;
    }

    ground
    {
        type            calculated;
        value           uniform 0;
    }
*/
    #include "include/sideAndTopPatches"
}


// ************************************************************************* //
