/*--------------------------------*- C++ -*----------------------------------*\
| =========                 |                                                 |
| \\      /  F ield         | OpenFOAM: The Open Source CFD Toolbox           |
|  \\    /   O peration     | Version:  2.3.x                                 |
|   \\  /    A nd           | Web:      www.OpenFOAM.org                      |
|    \\/     M anipulation  |                                                 |
\*---------------------------------------------------------------------------*/
FoamFile
{
    version     2.0;
    format      ascii;
    class       polyBoundaryMesh;
    location    "constant/polyMesh";
    object      boundary;
}
// * * * * * * * * * * * * * * * * * * * * * * * * * * * * * * * * * * * * * //

5
(
    inlet
    {
        type            patch;
        nFaces          768;
        startFace       71168;
    }
    outlet
    {
        type            patch;
        nFaces          768;
        startFace       71936;
    }
    walls
    {
        type            wall;
        inGroups        1(wall);
        nFaces          1536;
        startFace       72704;
    }
    top
    {
        type            wall;
        inGroups        1(wall);
        nFaces          1024;
        startFace       74240;
    }
    bottom
    {
        type            wall;
        inGroups        1(wall);
        nFaces          1024;
        startFace       75264;
    }
)

// ************************************************************************* //
