/*--------------------------------*- C++ -*----------------------------------*\
| =========                 |                                                 |
| \\      /  F ield         | OpenFOAM: The Open Source CFD Toolbox           |
|  \\    /   O peration     | Version:  2.4.x                                 |
|   \\  /    A nd           | Web:      www.OpenFOAM.org                      |
|    \\/     M anipulation  |                                                 |
\*---------------------------------------------------------------------------*/
FoamFile
{
    version     2.0;
    format      ascii;
    class       dictionary;
    object      controlDict;
}
// * * * * * * * * * * * * * * * * * * * * * * * * * * * * * * * * * * * * * //

application     pimpleFoam;

startFrom       startTime;

startTime       0;

stopAt          endTime;

endTime         2;

deltaT          0.005;

writeControl    runTime;

writeInterval   0.01;

writeFormat     ascii;

writePrecision  12;

writeCompression uncompressed;

timeFormat      general;

timePrecision   6;

runTimeModifiable true;

adjustTimeStep  false;

maxCo           0.9;

libs
(
    "libOpenFOAM.so"
    "libincompressibleTurbulenceModel.so"
    "libincompressibleRASModels.so"
    "libturbinesFoam.so"
);

DebugSwitches
{
    actuatorLineSource  1;
    actuatorLineElement 1;
    LeishmanBeddoes     1;
}

// ************************************************************************* //
