/*--------------------------------*- C++ -*----------------------------------*\
| =========                 |                                                 |
| \\      /  F ield         | OpenFOAM: The Open Source CFD Toolbox           |
|  \\    /   O peration     | Version:  2.4.x                                 |
|   \\  /    A nd           | Web:      www.OpenFOAM.org                      |
|    \\/     M anipulation  |                                                 |
\*---------------------------------------------------------------------------*/
FoamFile
{
    version     2.0;
    format      ascii;
    class       dictionary;
    location    "system";
    object      fvOptions;
}
// * * * * * * * * * * * * * * * * * * * * * * * * * * * * * * * * * * * * * //

foil
{
    type            actuatorLineSource;
    active          on;            // on/off switch
    selectionMode   cellSet;       // cellSet, points, cellZone
    cellSet         foil;          // cellSet name

    actuatorLineSourceCoeffs
    {
        fieldNames          (U);
        tipEffect           0.95; 
        freeStreamVelocity  (29.9 0 0); // M = 0.381
        nElements           4;
        writePerf           true;

        elementGeometry // Will be interpolated linearly per nElements
        ( // point spanDir chordLength chordRefDir chordMount pitch
            ((0.0 0.0 0.0) (0 0 1) (1.22) (-1 0 0) (0.25) (15))
            ((0.0 0.0 1.98) (0 0 1) (1.22) (-1 0 0) (0.25) (15))
        );
        
        dynamicStall
        {
            active              on;
            dynamicStallModel   LeishmanBeddoes;
            LeishmanBeddoesCoeffs
            {
                speedOfSound    343;
            }
        }
        
        harmonicPitching
        {
            active          on;
            reducedFreq     0.15; // omega*c/(2*UInfty) about chordMount
            amplitude       10.0; // Degrees
        }
        
        coefficientData
        ( // alpha C_l C_d
            #include "../../../resources/foilData/NACA0012_5e6"
		);
    }
}

// ************************************************************************* //
