/*--------------------------------*- C++ -*----------------------------------*\
| =========                 |                                                 |
| \\      /  F ield         | OpenFOAM: The Open Source CFD Toolbox           |
|  \\    /   O peration     | Version:  2.3.x                                 |
|   \\  /    A nd           | Web:      www.OpenFOAM.org                      |
|    \\/     M anipulation  |                                                 |
\*---------------------------------------------------------------------------*/
FoamFile
{
    version     2.0;
    format      ascii;
    class       dictionary;
    location    "system";
    object      fvOptions;
}
// * * * * * * * * * * * * * * * * * * * * * * * * * * * * * * * * * * * * * //

foil
{
    type            actuatorLineSource;
    active          on;            // on/off switch
    selectionMode   cellSet;       // cellSet, points, cellZone
    cellSet         foil;          // cellSet name

    actuatorLineSourceCoeffs
    {
        fieldNames          (U k epsilon);
        tipEffect           0.95; 
        freeStreamVelocity  (1 0 0);
        nElements           14;
        writePerf           true;

        elementGeometry // Will be interpolated linearly per nElements
        ( // point spanDir chordLength chordRefDir chordMount pitch
            ((0.0 0.0 -0.5) (0 0 1) (0.10) (-1 0 0) (0.25) (4.0))
            ((0.0 0.0  0.0) (0 0 1) (0.20) (-1 0 0) (0.25) (4.0))
            ((0.0 0.0  0.5) (0 0 1) (0.10) (-1 0 0) (0.25) (4.0))
        );
        
        dynamicStall
        {
            active              on;
            dynamicStallModel   LeishmanBeddoes;
            LeishmanBeddoesCoeffs
            {
                speedOfSound    343;
            }
        }
        
        coefficientData
        ( // alpha C_l C_d
            #include "../../../resources/foilData/NACA0021_1.6e5"
		);
    }
}

// ************************************************************************* //
