/*--------------------------------*- C++ -*----------------------------------*\
| =========                 |                                                 |
| \\      /  F ield         | OpenFOAM: The Open Source CFD Toolbox           |
|  \\    /   O peration     | Version:  2.4.x                                 |
|   \\  /    A nd           | Web:      www.OpenFOAM.org                      |
|    \\/     M anipulation  |                                                 |
\*---------------------------------------------------------------------------*/
FoamFile
{
    version     2.0;
    format      ascii;
    class       polyBoundaryMesh;
    location    "constant/polyMesh";
    object      boundary;
}
// * * * * * * * * * * * * * * * * * * * * * * * * * * * * * * * * * * * * * //

5
(
    inlet
    {
        type            patch;
        nFaces          70;
        startFace       9660;
    }
    outlet
    {
        type            patch;
        nFaces          70;
        startFace       9730;
    }
    walls
    {
        type            wall;
        inGroups        1(wall);
        nFaces          140;
        startFace       9800;
    }
    front
    {
        type            empty;
        inGroups        1(empty);
        nFaces          4900;
        startFace       9940;
    }
    back
    {
        type            empty;
        inGroups        1(empty);
        nFaces          4900;
        startFace       14840;
    }
)

// ************************************************************************* //
