/*--------------------------------*- C++ -*----------------------------------*\
| =========                 |                                                 |
| \\      /  F ield         | OpenFOAM: The Open Source CFD Toolbox           |
|  \\    /   O peration     | Version:  3.0.x                                 |
|   \\  /    A nd           | Web:      www.OpenFOAM.org                      |
|    \\/     M anipulation  |                                                 |
\*---------------------------------------------------------------------------*/
FoamFile
{
    version     2.0;
    format      ascii;
    class       volSymmTensorField;
    location    "0";
    object      R;
}
// * * * * * * * * * * * * * * * * * * * * * * * * * * * * * * * * * * * * * //

dimensions      [0 2 -2 0 0 0 0];

internalField   uniform (0 0 0 0 0 0);

boundaryField
{
    inlet
    {
        type            fixedValue;
        value           uniform (1e-6 1e-6 1e-6 1e-6 1e-6 1e-6);
    }

    outlet
    {
        type            zeroGradient;
        value           $internalField;
    }

    walls
    {
        type            kqRWallFunction;
        value           $internalField;
    }

    top
    {
        type            kqRWallFunction;
        value           $internalField;
    }

    bottom
    {
        type            kqRWallFunction;
        value           $internalField;
    }

    "proc.*"
    {
        type            processor;
    }
}


// ************************************************************************* //
