/*--------------------------------*- C++ -*----------------------------------*\
| =========                 |                                                 |
| \\      /  F ield         | OpenFOAM: The Open Source CFD Toolbox           |
|  \\    /   O peration     | Version:  3.0.x                                 |
|   \\  /    A nd           | Web:      www.OpenFOAM.org                      |
|    \\/     M anipulation  |                                                 |
\*---------------------------------------------------------------------------*/
FoamFile
{
    version     2.0;
    format      ascii;
    class       volScalarField;
    location    "0";
    object      epsilon;
}
// * * * * * * * * * * * * * * * * * * * * * * * * * * * * * * * * * * * * * //

dimensions      [0 2 -3 0 0 0 0];

#include        "include/initialConditions"

internalField   uniform $turbulentEpsilon;

boundaryField
{
    inlet
    {
        type            fixedValue;
        value           uniform $turbulentEpsilon;
    }

    outlet
    {
        type            inletOutlet;
        inletValue      $internalField;
        value           $internalField;
    }

    walls
    {
        type            epsilonWallFunction;
        value           uniform $turbulentEpsilon;
    }

    top
    {
        type            epsilonWallFunction;
        value           uniform $turbulentEpsilon;
    }

    bottom
    {
        type            epsilonWallFunction;
        value           uniform $turbulentEpsilon;
    }

    "proc.*"
    {
        type            processor;
    }
}


// ************************************************************************* //
