/*--------------------------------*- C++ -*----------------------------------*\
| =========                 |                                                 |
| \\      /  F ield         | OpenFOAM: The Open Source CFD Toolbox           |
|  \\    /   O peration     | Version:  2.3.x                                 |
|   \\  /    A nd           | Web:      www.OpenFOAM.org                      |
|    \\/     M anipulation  |                                                 |
\*---------------------------------------------------------------------------*/
FoamFile
{
    version     2.0;
    format      ascii;
    class       dictionary;
    location    "system";
    object      fvOptions;
}
// * * * * * * * * * * * * * * * * * * * * * * * * * * * * * * * * * * * * * //


turbine0
{
    type            crossFlowTurbineALSource;
    active          on;         // on/off switch
    selectionMode   cellSet;    // cellSet // points //cellZone
    cellSet         turbine0;   // probably won't use this, but we'll see

    crossFlowTurbineALSourceCoeffs
    {
        fieldNames      (U);
        nBlades	        3;
        tipEffect       0.95; 

        freeStreamVelocity (1 0 0);
        upstreamPoint   (-1.0, 0, 0); // probably don't need this
        tipSpeedRatio   1.9;

        origin          (0 0 0);
        axis            (0 0 1); // negative for opposite rotation
        rotorRadius     0.5; // for tip speed ratio calculation

        blades
        {
            blade1
            {
                nElements   24;
                profile     NACA0020;
                elementData
                ( // axialDistance, radius, azimuth, chord, chordMount, pitch
                    (-0.5 0.5 0.0 0.14 0.5 0.0)
                    ( 0.5 0.5 0.0 0.14 0.5 0.0)
                );
            }
            blade2
            {
                nElements   32;
                profile     NACA0018;
                elementData
                ( // axialDistance, radius, azimuth, chord, chordMount, pitch
                    (-0.5 0.5 120.0 0.14 0.5 0.0)
                    ( 0.5 0.5 120.0 0.14 0.5 0.0)
                );
            }
            blade3
            {
                nElements   48;
                profile     NACA0021;
                elementData
                ( // axialDistance, radius, azimuth, chord, chordMount, pitch
                    (-0.5 0.5 240.0 0.14 0.25 0.0)
                    ( 0.5 0.5 240.0 0.14 0.25 0.0)
                );
            }
        }
        
        profiles
        {
            NACA0020
            {
            data ( // alpha C_l C_d
            (-90 1.45 0.21)
            (-18 1.45 0.21)
            (-16 1.3 0.165)
            (-14 1.1 0.125)
            (-12 0.95 0.092)
            (-10 0.8 0.07)
            (-8 0.64 0.05)
            (-6 0.5 0.04)
            (-4 0.32 0.028)
            (-2 0.18 0.022)
            (0 0.0 0.02)
            (2 0.18 0.022)
            (4 0.32 0.028)
            (6 0.5 0.04)
            (8 0.64 0.05)
            (10 0.8 0.07)
            (12 0.95 0.092)
            (14 1.1 0.125)
            (16 1.3 0.165)
            (18 1.45 0.21)
            (90 1.45 0.21)
                );
            }
            NACA0018
            {
            data (
            (-90 1.45 0.21)
            (-18 1.45 0.21)
            (-16 1.3 0.165)
            (-14 1.1 0.125)
            (-12 0.95 0.092)
            (-10 0.8 0.07)
            (-8 0.64 0.05)
            (-6 0.5 0.04)
            (-4 0.32 0.028)
            (-2 0.18 0.022)
            (0 0.0 0.02)
            (2 0.18 0.022)
            (4 0.32 0.028)
            (6 0.5 0.04)
            (8 0.64 0.05)
            (10 0.8 0.07)
            (12 0.95 0.092)
            (14 1.1 0.125)
            (16 1.3 0.165)
            (18 1.45 0.21)
            (90 1.45 0.21)
                );
            }
            NACA0021
            {
            data (
            (-90 1.45 0.21)
            (-18 1.45 0.21)
            (-16 1.3 0.165)
            (-14 1.1 0.125)
            (-12 0.95 0.092)
            (-10 0.8 0.07)
            (-8 0.64 0.05)
            (-6 0.5 0.04)
            (-4 0.32 0.028)
            (-2 0.18 0.022)
            (0 0.0 0.02)
            (2 0.18 0.022)
            (4 0.32 0.028)
            (6 0.5 0.04)
            (8 0.64 0.05)
            (10 0.8 0.07)
            (12 0.95 0.092)
            (14 1.1 0.125)
            (16 1.3 0.165)
            (18 1.45 0.21)
            (90 1.45 0.21)
                );
            }
        }
    }
}

// ************************************************************************* //
