/*--------------------------------*- C++ -*----------------------------------*\
| =========                 |                                                 |
| \\      /  F ield         | OpenFOAM: The Open Source CFD Toolbox           |
|  \\    /   O peration     | Version:  2.3.x                                 |
|   \\  /    A nd           | Web:      www.OpenFOAM.org                      |
|    \\/     M anipulation  |                                                 |
\*---------------------------------------------------------------------------*/
FoamFile
{
    version     2.0;
    format      ascii;
    class       dictionary;
    object      topoSetDict;
}

// * * * * * * * * * * * * * * * * * * * * * * * * * * * * * * * * * * * * * //

actions
(
    {
        name 	turbine0;
        type	cellSet;
        action	new;
        source	cylinderToCell;
        sourceInfo
        {
            type cylinder; 
            p1 (0 0 -0.5); 
            p2 (0 0 0.5); 
            radius 0.5;
        }
    }

    {
        name    turbine0;
        type    cellZoneSet;
        action  new;
        source  setToCellZone;
        sourceInfo
        {
            set turbine0;
        }
    }
);

// ************************************************************************* //
