/*--------------------------------*- C++ -*----------------------------------*\
| =========                 |                                                 |
| \\      /  F ield         | OpenFOAM: The Open Source CFD Toolbox           |
|  \\    /   O peration     | Version:  2.4.x                                 |
|   \\  /    A nd           | Web:      www.OpenFOAM.org                      |
|    \\/     M anipulation  |                                                 |
\*---------------------------------------------------------------------------*/
FoamFile
{
    version     2.0;
    format      ascii;
    class       dictionary;
    location    "system";
    object      fvOptions;
}
// * * * * * * * * * * * * * * * * * * * * * * * * * * * * * * * * * * * * * //


turbine
{
    type            axialFlowTurbineALSource;
    active          on;
    selectionMode   cellSet; // cellSet || points || cellZone
    cellSet         turbine;

    axialFlowTurbineALSourceCoeffs
    {
        fieldNames          (U);
        origin              (0 0 0);
        axis                (-1 0 0);
        verticalDirection   (0 0 1);
        freeStreamVelocity  (10 0 0);
        tipSpeedRatio       6.0;
        rotorRadius         0.45;        // For tip speed ratio calculation
        tipEffect           0.95;
        
        dynamicStall
        {
            active              off;
            dynamicStallModel   LeishmanBeddoes;
        }

        blades
        {
            blade1
            {
                writePerf   true;
                nElements   26;
                profile     S826;
                elementData
                ( // radius, azimuth, chord, chordMount, pitch
                    (0.054999 0.0 0.0495 0.25 38.0)
                    (0.0675 0.0 0.081432 0.25 37.055)
                    (0.0824985 0.0 0.08011 0.25 32.544)
                    (0.0975015 0.0 0.077013 0.25 28.677)
                    (0.1125 0.0 0.073125 0.25 25.262)
                    (0.1274985 0.0 0.0690075 0.25 22.43)
                    (0.1425015 0.0 0.064953 0.25 19.988)
                    (0.1575 0.0 0.061101 0.25 18.034)
                    (0.1724985 0.0 0.057519 0.25 16.349)
                    (0.1875015 0.0 0.054225 0.25 14.663)
                    (0.2025 0.0 0.0512055 0.25 13.067)
                    (0.2174985 0.0 0.048447 0.25 11.829)
                    (0.2325015 0.0 0.0459315 0.25 10.753)
                    (0.2475 0.0 0.043632 0.25 9.8177)
                    (0.2624985 0.0 0.0415287 0.25 8.8827)
                    (0.2775015 0.0 0.0396009 0.25 7.9877)
                    (0.2925 0.0 0.0378306 0.25 7.2527)
                    (0.3074985 0.0 0.0362007 0.25 6.565)
                    (0.3225015 0.0 0.0346968 0.25 5.9187)
                    (0.3375 0.0 0.0333063 0.25 5.3045)
                    (0.3524985 0.0 0.0320171 0.25 4.7185)
                    (0.3675015 0.0 0.03081915 0.25 4.1316)
                    (0.3825 0.0 0.02970405 0.25 3.5439)
                    (0.3974985 0.0 0.02866365 0.25 2.9433)
                    (0.4125015 0.0 0.0276912 0.25 2.2185)
                    (0.4275 0.0 0.0267804 0.25 1.097)
                    (0.4424985 0.0 0.02592585 0.25 -0.71674)
                );
            }
            blade2
            {
                nElements   26;
                profile     S826;
                elementData
                ( // radius, azimuth, chord, chordMount, pitch
                    (0.054999 120.0 0.0495 0.25 38.0)
                    (0.0675 120.0 0.081432 0.25 37.055)
                    (0.0824985 120.0 0.08011 0.25 32.544)
                    (0.0975015 120.0 0.077013 0.25 28.677)
                    (0.1125 120.0 0.073125 0.25 25.262)
                    (0.1274985 120.0 0.0690075 0.25 22.43)
                    (0.1425015 120.0 0.064953 0.25 19.988)
                    (0.1575 120.0 0.061101 0.25 18.034)
                    (0.1724985 120.0 0.057519 0.25 16.349)
                    (0.1875015 120.0 0.054225 0.25 14.663)
                    (0.2025 120.0 0.0512055 0.25 13.067)
                    (0.2174985 120.0 0.048447 0.25 11.829)
                    (0.2325015 120.0 0.0459315 0.25 10.753)
                    (0.2475 120.0 0.043632 0.25 9.8177)
                    (0.2624985 120.0 0.0415287 0.25 8.8827)
                    (0.2775015 120.0 0.0396009 0.25 7.9877)
                    (0.2925 120.0 0.0378306 0.25 7.2527)
                    (0.3074985 120.0 0.0362007 0.25 6.565)
                    (0.3225015 120.0 0.0346968 0.25 5.9187)
                    (0.3375 120.0 0.0333063 0.25 5.3045)
                    (0.3524985 120.0 0.0320171 0.25 4.7185)
                    (0.3675015 120.0 0.03081915 0.25 4.1316)
                    (0.3825 120.0 0.02970405 0.25 3.5439)
                    (0.3974985 120.0 0.02866365 0.25 2.9433)
                    (0.4125015 120.0 0.0276912 0.25 2.2185)
                    (0.4275 120.0 0.0267804 0.25 1.097)
                    (0.4424985 120.0 0.02592585 0.25 -0.71674)
                );
            }
            blade3
            {
                nElements   26;
                profile     S826;
                elementData
                ( // radius, azimuth, chord, chordMount, pitch
                    (0.054999 240.0 0.0495 0.25 38.0)
                    (0.0675 240.0 0.081432 0.25 37.055)
                    (0.0824985 240.0 0.08011 0.25 32.544)
                    (0.0975015 240.0 0.077013 0.25 28.677)
                    (0.1125 240.0 0.073125 0.25 25.262)
                    (0.1274985 240.0 0.0690075 0.25 22.43)
                    (0.1425015 240.0 0.064953 0.25 19.988)
                    (0.1575 240.0 0.061101 0.25 18.034)
                    (0.1724985 240.0 0.057519 0.25 16.349)
                    (0.1875015 240.0 0.054225 0.25 14.663)
                    (0.2025 240.0 0.0512055 0.25 13.067)
                    (0.2174985 240.0 0.048447 0.25 11.829)
                    (0.2325015 240.0 0.0459315 0.25 10.753)
                    (0.2475 240.0 0.043632 0.25 9.8177)
                    (0.2624985 240.0 0.0415287 0.25 8.8827)
                    (0.2775015 240.0 0.0396009 0.25 7.9877)
                    (0.2925 240.0 0.0378306 0.25 7.2527)
                    (0.3074985 240.0 0.0362007 0.25 6.565)
                    (0.3225015 240.0 0.0346968 0.25 5.9187)
                    (0.3375 240.0 0.0333063 0.25 5.3045)
                    (0.3524985 240.0 0.0320171 0.25 4.7185)
                    (0.3675015 240.0 0.03081915 0.25 4.1316)
                    (0.3825 240.0 0.02970405 0.25 3.5439)
                    (0.3974985 240.0 0.02866365 0.25 2.9433)
                    (0.4125015 240.0 0.0276912 0.25 2.2185)
                    (0.4275 240.0 0.0267804 0.25 1.097)
                    (0.4424985 240.0 0.02592585 0.25 -0.71674)
                );
            }
        }
        
        tower
        {
            includeInTotalDrag  false; // default is false
            nElements   6;
            profile     cylinder;
            elementData
            ( // axial distance (turbine axis), height, diameter
                (-0.14 -0.82 0.09)
                (-0.14 -0.66 0.08)
                (-0.14 -0.42 0.06)
                (-0.14  0.00 0.05)
            );
        }
        
        hub
        {
            nElements   1;
            profile     cylinder;
            elementData
            ( // axial distance, height, diameter
                (0 0.09 0.09)
                (0 -0.09 0.09)
            );
        }
        
        profiles
        {
            S826
            {
                data ( // alpha C_l C_d
                    #include "../../resources/foilData/S826_1e5_Ostavan"
                );
            }
            cylinder
            {
                data ((-180 0 1.1)(180 0 1.1));
            }
        }
    }
}

// ************************************************************************* //
