/*--------------------------------*- C++ -*----------------------------------*\
| =========                 |                                                 |
| \\      /  F ield         | OpenFOAM: The Open Source CFD Toolbox           |
|  \\    /   O peration     | Version:  2.3.x                                 |
|   \\  /    A nd           | Web:      www.OpenFOAM.org                      |
|    \\/     M anipulation  |                                                 |
\*---------------------------------------------------------------------------*/
FoamFile
{
    version     2.0;
    format      ascii;
    class       dictionary;
    location    "system";
    object      fvOptions;
}
// * * * * * * * * * * * * * * * * * * * * * * * * * * * * * * * * * * * * * //


turbine
{
    type            crossFlowTurbineALSource;
    active          on;
    selectionMode   cellSet; // cellSet || points || cellZone
    cellSet         turbine;

    crossFlowTurbineALSourceCoeffs
    {
        fieldNames          (U);
        nBlades             3;
        tipEffect           0.95; 

        freeStreamVelocity  (1 0 0);
        tipSpeedRatio       1.9;
        //~ tsrAmplitude        0.19;       // Amplitude for TSR oscillation
        //~ tsrPhase            0.70;       // Angle of first peak (rad)

        origin              (0 0 0);
        axis                (0 0 1);    // Negative for opposite rotation
        rotorRadius         0.5;        // For tip speed ratio calculation
        
        dynamicStall
        {
            active              on;
            dynamicStallModel   LeishmanBeddoes;
        }

        blades
        {
            blade1
            {
                writePerf   true;
                nElements   14;
                profile     NACA0020;
                elementData
                ( // axialDistance, radius, azimuth, chord, chordMount, pitch
                    (-0.5 0.5 0.0 0.14 0.5 0.0)
                    ( 0.5 0.5 0.0 0.14 0.5 0.0)
                );
            }
            blade2
            {
                nElements   14;
                profile     NACA0020;
                elementData
                ( // axialDistance, radius, azimuth, chord, chordMount, pitch
                    (-0.5 0.5 120.0 0.14 0.5 0.0)
                    ( 0.5 0.5 120.0 0.14 0.5 0.0)
                );
            }
            blade3
            {
                nElements   14;
                profile     NACA0020;
                elementData
                ( // axialDistance, radius, azimuth, chord, chordMount, pitch
                    (-0.5 0.5 240.0 0.14 0.5 0.0)
                    ( 0.5 0.5 240.0 0.14 0.5 0.0)
                );
            }
        }
        
        struts
        {
            strut1
            {
                nElements   5;
                profile     NACA0020;
                elementData
                ( // axialDistance, radius, azimuth, chord, chordMount, pitch
                    (0.0 0.07 0.0 0.14 0.3 0.0)
                    (0.0 0.43 0.0 0.14 0.3 0.0)
                );
            }
            strut2
            {
                nElements   5;
                profile     NACA0020;
                elementData
                ( // axialDistance, radius, azimuth, chord, chordMount, pitch
                    (0.0 0.07 120.0 0.14 0.3 0.0)
                    (0.0 0.43 120.0 0.14 0.3 0.0)
                );
            }
            strut3
            {
                nElements   5;
                profile     NACA0020;
                elementData
                ( // axialDistance, radius, azimuth, chord, chordMount, pitch
                    (0.0 0.07 240.0 0.14 0.3 0.0)
                    (0.0 0.43 240.0 0.14 0.3 0.0)
                );
            }
        }
        
        shaft
        { 
            nElements   29;
            profile     cylinder;
            elementData
            ( // axialDistance, diameter
                (-0.66 0.09)
                ( 0.66 0.09)
            );
        }
        
        profiles
        {
            NACA0020
            {
                data 
                (   // alpha C_l C_d
                    #include "../../resources/foilData/NACA0021_3.6e5"
                );
            }
            cylinder
            {
                data ((-180 0 1.1)(180 0 1.1));
            }
        }
    }
}

// ************************************************************************* //
